Circuit: * C:\Users\dirkt\Documents\School\projectLab1\FinalProject\Code\Schematics\LTSpice\lm317.asc

WARNING: Less than two connections to node VOUT.  This node is used by D1.
Direct Newton iteration for .op point succeeded.

Date: Mon May 02 13:19:43 2022
Total elapsed time: 0.073 seconds.

tnom = 27
temp = 27
method = modified trap
totiter = 91
traniter = 60
tranpoints = 31
accept = 31
rejected = 0
matrix size = 67
fillins = 62
solver = Normal

